Circuit: * C:\Users\KAron\OneDrive - Analog Devices, Inc\Documents\Git\Licenta\Schematics\SIM\BEMF_Filter\BEMF_Filter.asc

WARNING: Less than two connections to node ref.  This node is used by v3.
WARNING: Less than two connections to node ref2.  This node is used by v5.
Direct Newton iteration for .op point succeeded.

Date: Fri May 10 12:08:30 2024
Total elapsed time: 0.075 seconds.

tnom = 27
temp = 27
method = trap
totiter = 3
traniter = 0
tranpoints = 0
accept = 0
rejected = 0
matrix size = 16
fillins = 0
solver = Normal
Avg thread counts: 12.0/0.0/12.0/12.0
Matrix Compiler1:      26 opcodes
Matrix Compiler2: 880 bytes object code size
