Circuit: * C:\Users\KAron\OneDrive - Analog Devices, Inc\Documents\Git\Licenta\Schematics\SIM\BEMF_Filter.asc

.OP point found by inspection.

Date: Mon Apr 29 13:59:21 2024
Total elapsed time: 0.055 seconds.

tnom = 27
temp = 27
method = trap
totiter = 0
traniter = 0
tranpoints = 0
accept = 0
rejected = 0
matrix size = 7
fillins = 0
solver = Normal
Avg thread counts: 12.0/0.0/0.0/3.1
Matrix Compiler1:      12 opcodes
Matrix Compiler2:      36 opcodes
