Circuit: * C:\Users\Aron\Desktop\Git\Licenta\Schematics\SIM\BEMF_Filter.asc


Date: Sun Apr 28 20:27:45 2024
Total elapsed time: 0.051 seconds.

tnom = 27
temp = 27
method = trap
totiter = 0
traniter = 0
tranpoints = 0
accept = 0
rejected = 0
matrix size = 7
fillins = 0
solver = Normal

