Circuit: * \\wsl.localhost\Debian\home\karon\Licenta\Simulations\BEMF Filter\BEMF_Filter.asc

.OP point found by inspection.

Date: Wed Jul  3 11:03:04 2024
Total elapsed time: 0.071 seconds.

tnom = 27
temp = 27
method = trap
totiter = 0
traniter = 0
tranpoints = 0
accept = 0
rejected = 0
matrix size = 4
fillins = 0
solver = Normal
Avg thread counts: 12.0/0.0/0.0/12.0
Matrix Compiler1:       7 opcodes
Matrix Compiler2:      21 opcodes
