Circuit: * C:\Users\Aron\Desktop\lic\esc v4.1\SIM\PWM_Filter.asc

.OP point found by inspection.

Date: Thu Apr 25 21:11:58 2024
Total elapsed time: 0.165 seconds.

tnom = 27
temp = 27
method = modified trap
totiter = 22128
traniter = 22128
tranpoints = 11065
accept = 8951
rejected = 2114
matrix size = 4
fillins = 0
solver = Normal
Matrix Compiler1: 100 bytes object code size  0.1/0.0/[0.0]
Matrix Compiler2: 248 bytes object code size  0.1/0.1/[0.1]

