Circuit: * \\wsl.localhost\Debian\home\karon\Licenta\Simulations\PWM Filter\PWM_Filter.asc

.OP point found by inspection.

Date: Wed Jul  3 11:03:26 2024
Total elapsed time: 2.009 seconds.

tnom = 27
temp = 27
method = modified trap
totiter = 300994
traniter = 300994
tranpoints = 150498
accept = 115382
rejected = 35116
matrix size = 5
fillins = 0
solver = Normal
Avg thread counts: 1.0/1.0/1.0/1.0
Matrix Compiler1: off  [0.1]/0.1/0.2
Matrix Compiler2: off  [0.1]/0.2/0.1

