Circuit: * \\wsl.localhost\Debian\home\karon\Licenta\Simulations\PWM Filter\PWM_Filter.asc

.OP point found by inspection.

Date: Tue Jun 25 14:32:38 2024
Total elapsed time: 1.853 seconds.

tnom = 27
temp = 27
method = modified trap
totiter = 300994
traniter = 300994
tranpoints = 150498
accept = 115382
rejected = 35116
matrix size = 5
fillins = 0
solver = Normal
Avg thread counts: 1.0/1.0/1.0/1.0
Matrix Compiler1: 168 bytes object code size  0.1/0.1/[0.1]
Matrix Compiler2: 321 bytes object code size  0.1/0.2/[0.1]

